gridlabd/models/glmFiles/powerflow_test.glm
// $id$
//	Copyright (C) 2008 Battelle Memorial Institute

// 4 Node Feeder: Balanced step-down grY-grY

/////////////////////////////////////////////
// BEGIN
/////////////////////////////////////////////
#set profiler=1

clock {
	timezone EST+5EDT;
	starttime '2000-01-01 0:00:00';
	stoptime '2000-01-02 0:00:00';
}

module powerflow{
	solver_method NR;
}

module tape;

object overhead_line_conductor:100 {
	geometric_mean_radius 0.0240;
	resistance 0.300;
}

object overhead_line_conductor:101 {
	geometric_mean_radius 0.00814;
	resistance 0.592;
}

// circuit breaker
object overhead_line_conductor:102 {
	name circuitBreaker;
	geometric_mean_radius 0.0242;
	//resistance 100000000000000000000000000000000;
	resistance 0.302;
}

object line_spacing:200 {
	distance_AB 2.5;
	distance_BC 4.5;
	distance_AC 7.0;
	distance_AN 5.656854;
	distance_BN 4.272002;
	distance_CN 5.0;
}

object line_configuration:300 {
	conductor_A overhead_line_conductor:100;
	conductor_B overhead_line_conductor:100;
	conductor_C overhead_line_conductor:100;
	conductor_N overhead_line_conductor:101;
	spacing line_spacing:200;
}

object line_configuration:301 {
	name circuitBreakerConfiguration;
	conductor_A overhead_line_conductor:102;
	conductor_B overhead_line_conductor:102;
	conductor_C overhead_line_conductor:102;
	conductor_N overhead_line_conductor:102;
	spacing line_spacing:200;
}

object transformer_configuration:400 {
	connect_type 1;
	power_rating 6000;
	powerA_rating 2000;
	powerB_rating 2000;
	powerC_rating 2000;
	primary_voltage 12480;
	secondary_voltage 4160;
	resistance 0.01;
	reactance 0.06;
}

object node {
	name node1;
	phases "ABCN";
	bustype SWING;
	voltage_A +7199.558+0.000j;
	voltage_B -3599.779-6235.000j;
	voltage_C -3599.779+6235.000j;
	nominal_voltage 7200;
}

object overhead_line:12 {
	phases "ABCN";
	from node1;
	to node2;
	length 2000;
	configuration line_configuration:300;
}

object node {
	name node2;
	phases "ABCN";
	voltage_A +7199.558+0.000j;
	voltage_B -3599.779-6235.000j;
	voltage_C -3599.779+6235.000j;
	nominal_voltage 7200;
}

object transformer:23 {
	phases "ABCN";
	from node2;
	to node3;
	configuration transformer_configuration:400;
}

object node {
	name node3;
	phases "ABCN";
	voltage_A +2401.777+0.000j;
	voltage_B -1200.889-2080.000j;
	voltage_C -1200.889+2080.000j;
	nominal_voltage 2400;
}

object overhead_line:34 {
	phases "ABCN";
	from node3;
	to load4;
	name circuitBreakerLine;
	length 2500;
	configuration line_configuration:301;
}

object load {
	name load4;
	phases "ABCN";
	voltage_A +2401.777+0.000j;
	voltage_B -1200.889-2080.000j;
	voltage_C -1200.889+2080.000j;
	//constant_power_A +1800000.000+871779.789j;
	//constant_power_B +1800000.000+871779.789j;
	//constant_power_C +1800000.000+871779.789j;
	constant_power_A +1800.000+871.789j;
	constant_power_B +1800.000+871.789j;
	constant_power_C +1800.000+871.789j;

		 // Devendra Shelar introducing player
	 object player {
	 	name cpPlayer;
	 	property constant_power_A; // property of load
	 	file "models/c_p_A_4.csv";
	 	loop 1;
	 };
	nominal_voltage 2400;
}


///////////////////////////////
// END
///////////////////////////////
